Circuit: *


Date: Tue Sep 12 18:21:57 2017
Total elapsed time: 0.024 seconds.

tnom = 27
temp = 27
method = trap
totiter = 0
traniter = 0
tranpoints = 0
accept = 0
rejected = 0
matrix size = 19
fillins = 11
solver = Normal

