Circuit: *


Date: Thu Mar 30 15:09:24 2017
Total elapsed time: 0.031 seconds.

tnom = 27
temp = 27
method = trap
totiter = 0
traniter = 0
tranpoints = 0
accept = 0
rejected = 0
matrix size = 19
fillins = 11
solver = Normal

