Circuit: * D:\Users\Imnadze\Optimization\LTspiceIV\Draft1.asc

L1: both pins shorted together -- ignoring.
L2: both pins shorted together -- ignoring.
L3: both pins shorted together -- ignoring.
.OP point found by inspection.

Date: Wed Dec 23 14:24:19 2015
Total elapsed time: 0.031 seconds.

tnom = 27
temp = 27
method = modified trap
totiter = 2096
traniter = 2096
tranpoints = 1049
accept = 1049
rejected = 0
matrix size = 11
fillins = 0
solver = Normal
Matrix Compiler1: 450 bytes object code size  0.2/0.2/[0.1]
Matrix Compiler2: 759 bytes object code size  0.2/0.2/[0.1]


