Circuit: * C:\Users\Kapanadze\Desktop\Motor_Optimization_Imnadze_Kapanadze\Optimization\Motor\Motor_optimization.asc


Date: Fri Mar 04 16:34:46 2016
Total elapsed time: 0.016 seconds.

tnom = 27
temp = 27
method = trap
totiter = 0
traniter = 0
tranpoints = 0
accept = 0
rejected = 0
matrix size = 19
fillins = 11
solver = Normal

